<?xml version="1.0" encoding="UTF-8"?>
<nodes>

   <node id="0" x="0.0" y="0.0" type="traffic_light"/>
   <node id="1" x="-200.0" y="-90.0"/>
   <node id="2" x="0.0" y="200.0"/>
   <node id="3" x="0.0" y="-200.0"/>
</nodes>