<?xml version="1.0" encoding="UTF-8"?>
<routes>

  <vType accel="3.0" decel="6.0" id="CarA" length="4.2" minGap="2.5" maxSpeed="50.0" sigma="0.5" />
  <vType accel="2.0" decel="6.0" id="CarB" length="5.0" minGap="2.5" maxSpeed="50.0" sigma="0.5" />
  <vType accel="1.0" decel="5.0" id="CarC" length="4.2" minGap="2.5" maxSpeed="40.0" sigma="0.5" />
  <vType accel="1.0" decel="5.0" id="CarD" length="5.0" minGap="2.5" maxSpeed="30.0" sigma="0.5" />
  <vType id="BUS" accel="2.6" decel="4.5" guiShape="bus" sigma="0.5" length="15" maxspeed="70" color="1,1,0"/>
  
  <route id="route1" edges="2i 2i.150 3o"/>
  <route id="route2" edges="2i 2i.150 1o"/>
  <route id="route3" edges="3i 3i.150 2o"/>
  <route id="route4" edges="3i 3i.150 1o"/>
  <route id="route5" edges="1i 1i.185 2o"/>
  <route id="route6" edges="1i 1i.185 3o"/>
  
  <route id="bus_route1" edges="1i 1i.185 3o">
    <stop busStop="busstop1" duration="10" />
    <stop busStop="busstop4" duration="15" />
  </route>
  <route id="bus_route2" edges="1i 1i.185 2o">
    <stop busStop="busstop1" duration="10" />
    <stop busStop="busstop3" duration="10" />
  </route>
  <route id="bus_route3" edges="3i 3i.150 2o">
    <stop busStop="busstop2" duration="10" />
    <stop busStop="busstop3" duration="10" />
  </route>
  <route id="bus_route4" edges="3i 3i.150 1o">
    <stop busStop="busstop2" duration="10" />
    <stop busStop="busstop5" duration="10" />
  </route>
  <route id="bus_route5" edges="2i 2i.150 1o">
    <stop busStop="busstop5" duration="10" />
  </route>
  <route id="bus_route6" edges="2i 2i.150 3o">
    <stop busStop="busstop4" duration="10" />
  </route>

  <flow id="flow1" type="CarA" route="route1" begin="0" end="900" period="20" departLane="random"/>
  <flow id="flow2" type="CarA" route="route2" begin="0" end="900" period="20" departLane="random"/>
  <flow id="flow3" type="CarA" route="route3" begin="0" end="900" period="20" departLane="random"/>
  <flow id="flow4" type="CarA" route="route4" begin="0" end="900" period="40" departLane="random"/>
  <flow id="flow5" type="CarA" route="route5" begin="0" end="900" period="40" departLane="random"/>
  <flow id="flow6" type="CarA" route="route6" begin="0" end="900" period="40" departLane="random"/>
  
  <flow id="busflow1" type="BUS" route="bus_route1" begin="0" end="900" period="100"/>
  
  <flow id="flow7" type="CarB" route="route1" begin="2" end="900" period="20" departLane="random"/>
  <flow id="flow8" type="CarB" route="route2" begin="2" end="900" period="20" departLane="random"/>
  <flow id="flow9" type="CarB" route="route3" begin="2" end="900" period="20" departLane="random"/>
  <flow id="flow10" type="CarB" route="route4" begin="2" end="900" period="40" departLane="random"/>
  <flow id="flow11" type="CarB" route="route5" begin="2" end="900" period="40" departLane="random"/>
  <flow id="flow12" type="CarB" route="route6" begin="2" end="900" period="40" departLane="random"/>
  
  <flow id="flow13" type="CarC" route="route1" begin="4" end="900" period="20" departLane="random"/>
  <flow id="flow14" type="CarC" route="route2" begin="4" end="900" period="20" departLane="random"/>
  <flow id="flow15" type="CarC" route="route3" begin="4" end="900" period="20" departLane="random"/>
  <flow id="flow16" type="CarC" route="route4" begin="4" end="900" period="40" departLane="random"/>
  <flow id="flow17" type="CarC" route="route5" begin="4" end="900" period="40" departLane="random"/>
  <flow id="flow18" type="CarC" route="route6" begin="4" end="900" period="40" departLane="random"/>
   
  <flow id="flow19" type="CarD" route="route1" begin="8" end="900" period="20" departLane="random"/>
  <flow id="flow20" type="CarD" route="route2" begin="8" end="900" period="20" departLane="random"/>
  <flow id="flow21" type="CarD" route="route3" begin="8" end="900" period="20" departLane="random"/>
  <flow id="flow22" type="CarD" route="route4" begin="8" end="900" period="40" departLane="random"/>
  <flow id="flow23" type="CarD" route="route5" begin="8" end="900" period="40" departLane="random"/>
  <flow id="flow24" type="CarD" route="route6" begin="8" end="900" period="40" departLane="random"/>
  
  <flow id="busflow2" type="BUS" route="bus_route2" begin="20" end="900" period="100"/>
  <flow id="busflow3" type="BUS" route="bus_route3" begin="40" end="900" period="100"/>
  <flow id="busflow4" type="BUS" route="bus_route4" begin="60" end="900" period="100"/>
  <flow id="busflow5" type="BUS" route="bus_route5" begin="80" end="900" period="100"/>
  <flow id="busflow6" type="BUS" route="bus_route6" begin="100" end="900" period="100"/>
  
  
  <flow id="flowPeak1_1" type="CarA" route="route1" begin="302" end="500" period="5" departLane="random"/>
  <flow id="flowPeak1_5" type="CarA" route="route6" begin="302" end="500" period="40" departLane="random"/>
  <flow id="flowPeak1_2" type="CarB" route="route1" begin="304" end="500" period="5" departLane="random"/>
  <flow id="flowPeak1_6" type="CarB" route="route6" begin="304" end="500" period="40" departLane="random"/>
  <flow id="flowPeak1_3" type="CarC" route="route1" begin="306" end="500" period="5" departLane="random"/>
  <flow id="flowPeak1_7" type="CarC" route="route6" begin="306" end="500" period="40" departLane="random"/>
  <flow id="flowPeak1_4" type="CarD" route="route1" begin="308" end="500" period="5" departLane="random"/>
  <flow id="flowPeak1_8" type="CarD" route="route6" begin="308" end="500" period="40" departLane="random"/>
  
  <flow id="flowPeak2_1" type="CarA" route="route3" begin="602" end="800" period="10" departLane="random"/>
  <flow id="flowPeak2_2" type="CarB" route="route3" begin="604" end="800" period="10" departLane="random"/>
  <flow id="flowPeak2_5" type="CarA" route="route4" begin="604" end="800" period="20" departLane="random"/>
  <flow id="flowPeak2_3" type="CarC" route="route3" begin="606" end="800" period="10" departLane="random"/>
  <flow id="flowPeak2_4" type="CarD" route="route3" begin="608" end="800" period="10" departLane="random"/>
  <flow id="flowPeak2_6" type="CarB" route="route4" begin="608" end="800" period="20" departLane="random"/>
  <flow id="flowPeak2_7" type="CarC" route="route4" begin="612" end="800" period="20" departLane="random"/>
  <flow id="flowPeak2_8" type="CarD" route="route4" begin="616" end="800" period="20" departLane="random"/>
   
</routes>
