<?xml version="1.0" encoding="UTF-8"?>

<!-- generated on 11/30/13 16:16:59 by SUMO netconvert Version 0.19.0
<?xml version="1.0" encoding="UTF-8"?>

<configuration xmlns:xsi="http://www.w3.org/2001/XMLSchema-instance" xsi:noNamespaceSchemaLocation="http://sumo-sim.org/xsd/netconvertConfiguration.xsd">

    <input>
        <node-files value="net.nod.xml"/>
        <edge-files value="net.edg.xml"/>
        <connection-files value="net.con.xml"/>
    </input>

    <output>
        <output-file value="out.net.xml"/>
    </output>

</configuration>
-->

<net version="0.13" xmlns:xsi="http://www.w3.org/2001/XMLSchema-instance" xsi:noNamespaceSchemaLocation="http://sumo-sim.org/xsd/net_file.xsd">

    <location netOffset="200.00,200.00" convBoundary="0.00,0.00,203.30,400.00" origBoundary="-200.00,-200.00,0.00,200.00" projParameter="!"/>

    <edge id=":0_0" function="internal">
        <lane id=":0_0_0" index="0" speed="60.00" length="8.02" shape="191.75,204.25 191.39,202.98 190.31,201.70 188.52,200.42 186.01,199.13"/>
    </edge>
    <edge id=":0_1" function="internal">
        <lane id=":0_1_0" index="0" speed="60.00" length="19.50" shape="195.05,204.25 195.05,198.46 195.05,194.50 195.05,190.54 195.05,184.75"/>
        <lane id=":0_1_1" index="1" speed="60.00" length="19.50" shape="198.35,204.25 198.35,198.46 198.35,194.50 198.35,190.54 198.35,184.75"/>
    </edge>
    <edge id=":0_3" function="internal">
        <lane id=":0_3_0" index="0" speed="60.00" length="19.50" shape="208.25,184.75 208.25,190.54 208.25,194.50 208.25,198.46 208.25,204.25"/>
        <lane id=":0_3_1" index="1" speed="60.00" length="19.50" shape="204.95,184.75 204.95,190.54 204.95,194.50 204.95,198.46 204.95,204.25"/>
    </edge>
    <edge id=":0_5" function="internal">
        <lane id=":0_5_0" index="0" speed="60.00" length="12.04" shape="201.65,184.75 200.76,192.14 198.35,196.05"/>
    </edge>
    <edge id=":0_9" function="internal">
        <lane id=":0_9_0" index="0" speed="60.00" length="11.65" shape="198.35,196.05 198.08,196.49 193.61,197.82 187.36,196.12"/>
    </edge>
    <edge id=":0_6" function="internal">
        <lane id=":0_6_0" index="0" speed="60.00" length="5.62" shape="191.43,187.09 193.01,187.56 194.14,187.32 194.82,186.39 195.05,184.75"/>
    </edge>
    <edge id=":0_7" function="internal">
        <lane id=":0_7_0" index="0" speed="60.00" length="6.30" shape="190.07,190.10 195.05,192.58"/>
        <lane id=":0_7_1" index="1" speed="60.00" length="6.30" shape="188.72,193.11 195.05,196.18"/>
    </edge>
    <edge id=":0_10" function="internal">
        <lane id=":0_10_0" index="0" speed="60.00" length="18.22" shape="195.05,192.58 198.02,194.06 203.71,197.73 207.11,201.13 208.25,204.25"/>
    </edge>
    <edge id=":0_11" function="internal">
        <lane id=":0_11_0" index="0" speed="60.00" length="13.09" shape="195.05,196.18 195.82,196.55 200.89,199.55 203.94,202.12 204.95,204.25"/>
    </edge>
    <edge id=":1_0" function="internal">
        <lane id=":1_0_0" index="0" speed="60.00" length="9.64" shape="-0.68,111.50 -2.26,108.98 -2.33,107.14 -0.90,105.98 2.03,105.49"/>
    </edge>
    <edge id=":1i.185_0" function="internal">
        <lane id=":1i.185_0_0" index="0" speed="60.00" length="3.49" shape="170.72,177.78 173.46,179.01"/>
        <lane id=":1i.185_0_1" index="1" speed="60.00" length="3.49" shape="169.37,180.79 172.10,182.02"/>
        <lane id=":1i.185_0_2" index="2" speed="60.00" length="3.49" shape="169.37,180.79 170.75,185.03"/>
    </edge>
    <edge id=":2_0" function="internal">
        <lane id=":2_0_0" index="0" speed="60.00" length="9.64" shape="204.95,400.00 203.30,402.48 201.65,403.30 200.00,402.48 198.35,400.00"/>
    </edge>
    <edge id=":2i.150_0" function="internal">
        <lane id=":2i.150_0_0" index="0" speed="60.00" length="3.49" shape="195.05,251.50 191.75,248.50"/>
        <lane id=":2i.150_0_1" index="1" speed="60.00" length="3.49" shape="195.05,251.50 195.05,248.50"/>
        <lane id=":2i.150_0_2" index="2" speed="60.00" length="3.49" shape="198.35,251.50 198.35,248.50"/>
    </edge>
    <edge id=":3_0" function="internal">
        <lane id=":3_0_0" index="0" speed="60.00" length="9.64" shape="198.35,0.00 200.00,-2.48 201.65,-3.30 203.30,-2.48 204.95,0.00"/>
    </edge>
    <edge id=":3i.150_0" function="internal">
        <lane id=":3i.150_0_0" index="0" speed="60.00" length="3.49" shape="208.25,148.50 208.25,151.50"/>
        <lane id=":3i.150_0_1" index="1" speed="60.00" length="3.49" shape="204.95,148.50 204.95,151.50"/>
        <lane id=":3i.150_0_2" index="2" speed="60.00" length="3.49" shape="204.95,148.50 201.65,151.50"/>
    </edge>

    <edge id="1i" from="1" to="1i.185" priority="1" shape="1.35,106.99 170.06,182.91">
        <lane id="1i_0" index="0" speed="60.00" length="183.50" shape="3.39,102.48 170.72,177.78"/>
        <lane id="1i_1" index="1" speed="60.00" length="183.50" shape="2.03,105.49 169.37,180.79"/>
    </edge>
    <edge id="1i.185" from="1i.185" to="0" priority="1">
        <lane id="1i.185_0" index="0" speed="60.00" length="19.70" shape="173.46,179.01 191.43,187.09"/>
        <lane id="1i.185_1" index="1" speed="60.00" length="19.70" shape="172.10,182.02 190.07,190.10"/>
        <lane id="1i.185_2" index="2" speed="60.00" length="19.70" shape="170.75,185.03 188.72,193.11"/>
    </edge>
    <edge id="1o" from="0" to="1" priority="1">
        <lane id="1o_0" index="0" speed="60.00" length="206.20" shape="186.01,199.13 -2.03,114.51"/>
        <lane id="1o_1" index="1" speed="60.00" length="206.20" shape="187.36,196.12 -0.68,111.50"/>
    </edge>
    <edge id="2i" from="2" to="2i.150" priority="1">
        <lane id="2i_0" index="0" speed="60.00" length="148.50" shape="195.05,400.00 195.05,251.50"/>
        <lane id="2i_1" index="1" speed="60.00" length="148.50" shape="198.35,400.00 198.35,251.50"/>
    </edge>
    <edge id="2i.150" from="2i.150" to="0" priority="1">
        <lane id="2i.150_0" index="0" speed="60.00" length="44.25" shape="191.75,248.50 191.75,204.25"/>
        <lane id="2i.150_1" index="1" speed="60.00" length="44.25" shape="195.05,248.50 195.05,204.25"/>
        <lane id="2i.150_2" index="2" speed="60.00" length="44.25" shape="198.35,248.50 198.35,204.25"/>
    </edge>
    <edge id="2o" from="0" to="2" priority="1" shape="203.30,200.00 203.30,400.00">
        <lane id="2o_0" index="0" speed="60.00" length="195.75" shape="208.25,204.25 208.25,400.00"/>
        <lane id="2o_1" index="1" speed="60.00" length="195.75" shape="204.95,204.25 204.95,400.00"/>
    </edge>
    <edge id="3i" from="3" to="3i.150" priority="1" shape="203.30,0.00 203.30,150.00">
        <lane id="3i_0" index="0" speed="60.00" length="148.50" shape="208.25,0.00 208.25,148.50"/>
        <lane id="3i_1" index="1" speed="60.00" length="148.50" shape="204.95,0.00 204.95,148.50"/>
    </edge>
    <edge id="3i.150" from="3i.150" to="0" priority="1">
        <lane id="3i.150_0" index="0" speed="60.00" length="33.25" shape="208.25,151.50 208.25,184.75"/>
        <lane id="3i.150_1" index="1" speed="60.00" length="33.25" shape="204.95,151.50 204.95,184.75"/>
        <lane id="3i.150_2" index="2" speed="60.00" length="33.25" shape="201.65,151.50 201.65,184.75"/>
    </edge>
    <edge id="3o" from="0" to="3" priority="1">
        <lane id="3o_0" index="0" speed="60.00" length="184.75" shape="195.05,184.75 195.05,0.00"/>
        <lane id="3o_1" index="1" speed="60.00" length="184.75" shape="198.35,184.75 198.35,0.00"/>
    </edge>

    <tlLogic id="0" type="static" programID="0" offset="0">
        <phase duration="31" state="GGGGGgrrr"/>
        <phase duration="20" state="yyyyygrrr"/>
        <phase duration="6" state="rrrrrGrrr"/>
        <phase duration="20" state="rrrrryrrr"/>
        <phase duration="31" state="GrrrrrGGG"/>
        <phase duration="20" state="yrrrrryyy"/>
    </tlLogic>

    <junction id="0" type="traffic_light" x="200.00" y="200.00" incLanes="2i.150_0 2i.150_1 2i.150_2 3i.150_0 3i.150_1 3i.150_2 1i.185_0 1i.185_1 1i.185_2" intLanes=":0_0_0 :0_1_0 :0_1_1 :0_3_0 :0_3_1 :0_9_0 :0_6_0 :0_10_0 :0_11_0" shape="190.15,204.25 209.85,204.25 209.85,184.75 193.45,184.75 192.08,185.64 185.35,200.59">
        <request index="0" response="000000000" foes="000000000" cont="0"/>
        <request index="1" response="000000000" foes="111100000" cont="0"/>
        <request index="2" response="000000000" foes="111100000" cont="0"/>
        <request index="3" response="000000000" foes="110000000" cont="0"/>
        <request index="4" response="000000000" foes="110000000" cont="0"/>
        <request index="5" response="000000110" foes="110000110" cont="1"/>
        <request index="6" response="000000110" foes="000000110" cont="0"/>
        <request index="7" response="000111110" foes="000111110" cont="1"/>
        <request index="8" response="000111110" foes="000111110" cont="1"/>
    </junction>
    <junction id="1" type="priority" x="0.00" y="110.00" incLanes="1o_0 1o_1" intLanes=":1_0_0" shape="1.37,106.95 4.04,101.02 -2.69,115.97 -0.02,110.05">
        <request index="0" response="0" foes="0" cont="0"/>
    </junction>
    <junction id="1i.185" type="priority" x="168.71" y="185.92" incLanes="1i_0 1i_1" intLanes=":1i.185_0_0 :1i.185_0_1 :1i.185_0_2" shape="170.09,186.49 174.12,177.55 171.38,176.32 168.71,182.25">
        <request index="0" response="000" foes="000" cont="0"/>
        <request index="1" response="000" foes="000" cont="0"/>
        <request index="2" response="000" foes="000" cont="0"/>
    </junction>
    <junction id="2" type="priority" x="200.00" y="400.00" incLanes="2o_0 2o_1" intLanes=":2_0_0" shape="199.95,400.00 193.45,400.00 209.85,400.00 203.35,400.00">
        <request index="0" response="0" foes="0" cont="0"/>
    </junction>
    <junction id="2i.150" type="priority" x="200.00" y="250.00" incLanes="2i_0 2i_1" intLanes=":2i.150_0_0 :2i.150_0_1 :2i.150_0_2" shape="193.45,251.50 199.95,251.50 199.95,248.50 190.15,248.50">
        <request index="0" response="000" foes="000" cont="0"/>
        <request index="1" response="000" foes="000" cont="0"/>
        <request index="2" response="000" foes="000" cont="0"/>
    </junction>
    <junction id="3" type="priority" x="200.00" y="0.00" incLanes="3o_0 3o_1" intLanes=":3_0_0" shape="203.35,-0.00 209.85,-0.00 193.45,0.00 199.95,0.00">
        <request index="0" response="0" foes="0" cont="0"/>
    </junction>
    <junction id="3i.150" type="priority" x="200.00" y="150.00" incLanes="3i_0 3i_1" intLanes=":3i.150_0_0 :3i.150_0_1 :3i.150_0_2" shape="200.05,151.50 209.85,151.50 209.85,148.50 203.35,148.50">
        <request index="0" response="000" foes="000" cont="0"/>
        <request index="1" response="000" foes="000" cont="0"/>
        <request index="2" response="000" foes="000" cont="0"/>
    </junction>

    <junction id=":0_9_0" type="internal" x="198.35" y="196.05" incLanes=":0_5_0 2i.150_1 2i.150_2" intLanes=":0_1_0 :0_1_1 :0_7_0 :0_7_1"/>
    <junction id=":0_10_0" type="internal" x="195.05" y="192.58" incLanes=":0_7_0 2i.150_1 2i.150_2 3i.150_0 3i.150_1" intLanes=":0_1_0 :0_1_1 :0_3_0 :0_3_1 :0_5_0"/>
    <junction id=":0_11_0" type="internal" x="195.05" y="196.18" incLanes=":0_7_1 2i.150_1 2i.150_2 3i.150_0 3i.150_1" intLanes=":0_1_0 :0_1_1 :0_3_0 :0_3_1 :0_5_0"/>

    <connection from="1i" to="1i.185" fromLane="0" toLane="0" via=":1i.185_0_0" dir="s" state="M"/>
    <connection from="1i" to="1i.185" fromLane="1" toLane="1" via=":1i.185_0_1" dir="s" state="M"/>
    <connection from="1i" to="1i.185" fromLane="1" toLane="2" via=":1i.185_0_2" dir="s" state="M"/>
    <connection from="1i.185" to="3o" fromLane="0" toLane="0" via=":0_6_0" tl="0" linkIndex="6" dir="r" state="o"/>
    <connection from="1i.185" to="2o" fromLane="1" toLane="0" via=":0_7_0" tl="0" linkIndex="7" dir="l" state="o"/>
    <connection from="1i.185" to="2o" fromLane="2" toLane="1" via=":0_7_1" tl="0" linkIndex="8" dir="l" state="o"/>
    <connection from="1o" to="1i" fromLane="1" toLane="1" via=":1_0_0" dir="t" state="M"/>
    <connection from="2i" to="2i.150" fromLane="0" toLane="0" via=":2i.150_0_0" dir="s" state="M"/>
    <connection from="2i" to="2i.150" fromLane="0" toLane="1" via=":2i.150_0_1" dir="s" state="M"/>
    <connection from="2i" to="2i.150" fromLane="1" toLane="2" via=":2i.150_0_2" dir="s" state="M"/>
    <connection from="2i.150" to="1o" fromLane="0" toLane="0" via=":0_0_0" tl="0" linkIndex="0" dir="r" state="o"/>
    <connection from="2i.150" to="3o" fromLane="1" toLane="0" via=":0_1_0" tl="0" linkIndex="1" dir="s" state="o"/>
    <connection from="2i.150" to="3o" fromLane="2" toLane="1" via=":0_1_1" tl="0" linkIndex="2" dir="s" state="o"/>
    <connection from="2o" to="2i" fromLane="1" toLane="1" via=":2_0_0" dir="t" state="M"/>
    <connection from="3i" to="3i.150" fromLane="0" toLane="0" via=":3i.150_0_0" dir="s" state="M"/>
    <connection from="3i" to="3i.150" fromLane="1" toLane="1" via=":3i.150_0_1" dir="s" state="M"/>
    <connection from="3i" to="3i.150" fromLane="1" toLane="2" via=":3i.150_0_2" dir="s" state="M"/>
    <connection from="3i.150" to="2o" fromLane="0" toLane="0" via=":0_3_0" tl="0" linkIndex="3" dir="s" state="o"/>
    <connection from="3i.150" to="2o" fromLane="1" toLane="1" via=":0_3_1" tl="0" linkIndex="4" dir="s" state="o"/>
    <connection from="3i.150" to="1o" fromLane="2" toLane="1" via=":0_5_0" tl="0" linkIndex="5" dir="l" state="o"/>
    <connection from="3o" to="3i" fromLane="1" toLane="1" via=":3_0_0" dir="t" state="M"/>

    <connection from=":0_0" to="1o" fromLane="0" toLane="0" dir="s" state="M"/>
    <connection from=":0_1" to="3o" fromLane="0" toLane="0" dir="s" state="M"/>
    <connection from=":0_1" to="3o" fromLane="1" toLane="1" dir="s" state="M"/>
    <connection from=":0_3" to="2o" fromLane="0" toLane="0" dir="s" state="M"/>
    <connection from=":0_3" to="2o" fromLane="1" toLane="1" dir="s" state="M"/>
    <connection from=":0_5" to="1o" fromLane="0" toLane="1" via=":0_9_0" dir="s" state="M"/>
    <connection from=":0_9" to="1o" fromLane="0" toLane="1" dir="s" state="M"/>
    <connection from=":0_6" to="3o" fromLane="0" toLane="0" dir="s" state="M"/>
    <connection from=":0_7" to="2o" fromLane="0" toLane="0" via=":0_10_0" dir="s" state="M"/>
    <connection from=":0_10" to="2o" fromLane="0" toLane="0" dir="s" state="M"/>
    <connection from=":0_7" to="2o" fromLane="1" toLane="1" via=":0_11_0" dir="s" state="M"/>
    <connection from=":0_11" to="2o" fromLane="0" toLane="1" dir="s" state="M"/>
    <connection from=":1_0" to="1i" fromLane="0" toLane="1" dir="s" state="M"/>
    <connection from=":1i.185_0" to="1i.185" fromLane="0" toLane="0" dir="s" state="M"/>
    <connection from=":1i.185_0" to="1i.185" fromLane="1" toLane="1" dir="s" state="M"/>
    <connection from=":1i.185_0" to="1i.185" fromLane="2" toLane="2" dir="s" state="M"/>
    <connection from=":2_0" to="2i" fromLane="0" toLane="1" dir="s" state="M"/>
    <connection from=":2i.150_0" to="2i.150" fromLane="0" toLane="0" dir="s" state="M"/>
    <connection from=":2i.150_0" to="2i.150" fromLane="1" toLane="1" dir="s" state="M"/>
    <connection from=":2i.150_0" to="2i.150" fromLane="2" toLane="2" dir="s" state="M"/>
    <connection from=":3_0" to="3i" fromLane="0" toLane="1" dir="s" state="M"/>
    <connection from=":3i.150_0" to="3i.150" fromLane="0" toLane="0" dir="s" state="M"/>
    <connection from=":3i.150_0" to="3i.150" fromLane="1" toLane="1" dir="s" state="M"/>
    <connection from=":3i.150_0" to="3i.150" fromLane="2" toLane="2" dir="s" state="M"/>

</net>
