<?xml version="1.0" encoding="UTF-8"?>

<!-- generated on 12/08/13 01:29:49 by SUMO netconvert Version 0.19.0
<?xml version="1.0" encoding="UTF-8"?>

<configuration xmlns:xsi="http://www.w3.org/2001/XMLSchema-instance" xsi:noNamespaceSchemaLocation="http://sumo-sim.org/xsd/netconvertConfiguration.xsd">

    <input>
        <node-files value="net.nod.xml"/>
        <edge-files value="net.edg.xml"/>
        <connection-files value="net.con.xml"/>
    </input>

    <output>
        <output-file value="out.net.xml"/>
    </output>

</configuration>
-->

<net version="0.13" xmlns:xsi="http://www.w3.org/2001/XMLSchema-instance" xsi:noNamespaceSchemaLocation="http://sumo-sim.org/xsd/net_file.xsd">

    <location netOffset="500.00,500.00" convBoundary="0.00,0.00,503.30,1000.00" origBoundary="-500.00,-500.00,0.00,500.00" projParameter="!"/>

    <edge id=":0_0" function="internal">
        <lane id=":0_0_0" index="0" speed="60.00" length="6.79" shape="491.75,504.92 491.45,503.66 490.57,502.52 489.09,501.50 487.03,500.59"/>
    </edge>
    <edge id=":0_1" function="internal">
        <lane id=":0_1_0" index="0" speed="60.00" length="19.24" shape="495.05,504.92 495.05,499.20 495.05,495.29 495.05,491.39 495.05,485.67"/>
        <lane id=":0_1_1" index="1" speed="60.00" length="19.24" shape="498.35,504.92 498.35,499.20 498.35,495.29 498.35,491.39 498.35,485.67"/>
    </edge>
    <edge id=":0_3" function="internal">
        <lane id=":0_3_0" index="0" speed="60.00" length="19.24" shape="508.25,485.67 508.25,491.39 508.25,495.29 508.25,499.20 508.25,504.92"/>
        <lane id=":0_3_1" index="1" speed="60.00" length="19.24" shape="504.95,485.67 504.95,491.39 504.95,495.29 504.95,499.20 504.95,504.92"/>
    </edge>
    <edge id=":0_5" function="internal">
        <lane id=":0_5_0" index="0" speed="60.00" length="11.88" shape="501.65,485.67 500.81,492.66 498.35,496.83"/>
    </edge>
    <edge id=":0_9" function="internal">
        <lane id=":0_9_0" index="0" speed="60.00" length="10.68" shape="498.35,496.83 498.27,496.96 494.05,498.57 488.14,497.49"/>
    </edge>
    <edge id=":0_6" function="internal">
        <lane id=":0_6_0" index="0" speed="60.00" length="5.48" shape="491.50,488.17 493.05,488.49 494.16,488.19 494.83,487.25 495.05,485.67"/>
    </edge>
    <edge id=":0_7" function="internal">
        <lane id=":0_7_0" index="0" speed="60.00" length="5.65" shape="490.38,491.28 495.05,493.23"/>
        <lane id=":0_7_1" index="1" speed="60.00" length="5.65" shape="489.26,494.38 495.05,496.72"/>
    </edge>
    <edge id=":0_10" function="internal">
        <lane id=":0_10_0" index="0" speed="60.00" length="18.47" shape="495.05,493.23 498.20,494.54 503.78,497.90 507.13,501.36 508.25,504.92"/>
    </edge>
    <edge id=":0_11" function="internal">
        <lane id=":0_11_0" index="0" speed="60.00" length="13.34" shape="495.05,496.72 496.13,497.16 501.03,499.84 503.97,502.42 504.95,504.92"/>
    </edge>
    <edge id=":1_0" function="internal">
        <lane id=":1_0_0" index="0" speed="60.00" length="9.64" shape="-0.56,321.55 -2.33,319.16 -2.55,317.33 -1.21,316.06 1.68,315.34"/>
    </edge>
    <edge id=":1i.485_0" function="internal">
        <lane id=":1i.485_0_0" index="0" speed="60.00" length="3.49" shape="457.71,476.01 460.54,477.02"/>
        <lane id=":1i.485_0_1" index="1" speed="60.00" length="3.49" shape="456.60,479.11 459.42,480.13"/>
        <lane id=":1i.485_0_2" index="2" speed="60.00" length="3.49" shape="456.60,479.11 458.30,483.23"/>
    </edge>
    <edge id=":2_0" function="internal">
        <lane id=":2_0_0" index="0" speed="60.00" length="9.64" shape="504.95,1000.00 503.30,1002.47 501.65,1003.30 500.00,1002.47 498.35,1000.00"/>
    </edge>
    <edge id=":2i.450_0" function="internal">
        <lane id=":2i.450_0_0" index="0" speed="60.00" length="3.49" shape="495.05,551.50 491.75,548.50"/>
        <lane id=":2i.450_0_1" index="1" speed="60.00" length="3.49" shape="495.05,551.50 495.05,548.50"/>
        <lane id=":2i.450_0_2" index="2" speed="60.00" length="3.49" shape="498.35,551.50 498.35,548.50"/>
    </edge>
    <edge id=":3_0" function="internal">
        <lane id=":3_0_0" index="0" speed="60.00" length="9.64" shape="498.35,0.00 500.00,-2.47 501.65,-3.30 503.30,-2.47 504.95,0.00"/>
    </edge>
    <edge id=":3i.450_0" function="internal">
        <lane id=":3i.450_0_0" index="0" speed="60.00" length="3.49" shape="508.25,448.50 508.25,451.50"/>
        <lane id=":3i.450_0_1" index="1" speed="60.00" length="3.49" shape="504.95,448.50 504.95,451.50"/>
        <lane id=":3i.450_0_2" index="2" speed="60.00" length="3.49" shape="504.95,448.50 501.65,451.50"/>
    </edge>

    <edge id="1i" from="1" to="1i.485" priority="1" shape="1.12,316.90 457.45,481.17">
        <lane id="1i_0" index="0" speed="60.00" length="483.50" shape="2.79,312.24 457.71,476.01"/>
        <lane id="1i_1" index="1" speed="60.00" length="483.50" shape="1.68,315.34 456.60,479.11"/>
    </edge>
    <edge id="1i.485" from="1i.485" to="0" priority="1">
        <lane id="1i.485_0" index="0" speed="60.00" length="32.91" shape="460.54,477.02 491.50,488.17"/>
        <lane id="1i.485_1" index="1" speed="60.00" length="32.91" shape="459.42,480.13 490.38,491.28"/>
        <lane id="1i.485_2" index="2" speed="60.00" length="32.91" shape="458.30,483.23 489.26,494.38"/>
    </edge>
    <edge id="1o" from="0" to="1" priority="1">
        <lane id="1o_0" index="0" speed="60.00" length="519.41" shape="487.03,500.59 -1.68,324.66"/>
        <lane id="1o_1" index="1" speed="60.00" length="519.41" shape="488.14,497.49 -0.56,321.55"/>
    </edge>
    <edge id="2i" from="2" to="2i.450" priority="1">
        <lane id="2i_0" index="0" speed="60.00" length="448.50" shape="495.05,1000.00 495.05,551.50"/>
        <lane id="2i_1" index="1" speed="60.00" length="448.50" shape="498.35,1000.00 498.35,551.50"/>
    </edge>
    <edge id="2i.450" from="2i.450" to="0" priority="1">
        <lane id="2i.450_0" index="0" speed="60.00" length="43.58" shape="491.75,548.50 491.75,504.92"/>
        <lane id="2i.450_1" index="1" speed="60.00" length="43.58" shape="495.05,548.50 495.05,504.92"/>
        <lane id="2i.450_2" index="2" speed="60.00" length="43.58" shape="498.35,548.50 498.35,504.92"/>
    </edge>
    <edge id="2o" from="0" to="2" priority="1" shape="503.30,500.00 503.30,1000.00">
        <lane id="2o_0" index="0" speed="60.00" length="495.08" shape="508.25,504.92 508.25,1000.00"/>
        <lane id="2o_1" index="1" speed="60.00" length="495.08" shape="504.95,504.92 504.95,1000.00"/>
    </edge>
    <edge id="3i" from="3" to="3i.450" priority="1" shape="503.30,0.00 503.30,450.00">
        <lane id="3i_0" index="0" speed="60.00" length="448.50" shape="508.25,0.00 508.25,448.50"/>
        <lane id="3i_1" index="1" speed="60.00" length="448.50" shape="504.95,0.00 504.95,448.50"/>
    </edge>
    <edge id="3i.450" from="3i.450" to="0" priority="1">
        <lane id="3i.450_0" index="0" speed="60.00" length="34.17" shape="508.25,451.50 508.25,485.67"/>
        <lane id="3i.450_1" index="1" speed="60.00" length="34.17" shape="504.95,451.50 504.95,485.67"/>
        <lane id="3i.450_2" index="2" speed="60.00" length="34.17" shape="501.65,451.50 501.65,485.67"/>
    </edge>
    <edge id="3o" from="0" to="3" priority="1">
        <lane id="3o_0" index="0" speed="60.00" length="485.67" shape="495.05,485.67 495.05,0.00"/>
        <lane id="3o_1" index="1" speed="60.00" length="485.67" shape="498.35,485.67 498.35,0.00"/>
    </edge>

    <tlLogic id="0" type="static" programID="0" offset="0">
        <phase duration="31" state="GGGGGgrrr"/>
        <phase duration="20" state="yyyyygrrr"/>
        <phase duration="6" state="rrrrrGrrr"/>
        <phase duration="20" state="rrrrryrrr"/>
        <phase duration="31" state="GrrrrrGGG"/>
        <phase duration="20" state="yrrrrryyy"/>
    </tlLogic>

    <junction id="0" type="traffic_light" x="500.00" y="500.00" incLanes="2i.450_0 2i.450_1 2i.450_2 3i.450_0 3i.450_1 3i.450_2 1i.485_0 1i.485_1 1i.485_2" intLanes=":0_0_0 :0_1_0 :0_1_1 :0_3_0 :0_3_1 :0_9_0 :0_6_0 :0_10_0 :0_11_0" shape="490.15,504.92 509.85,504.92 509.85,485.67 493.45,485.67 492.04,486.67 486.48,502.10">
        <request index="0" response="000000000" foes="000000000" cont="0"/>
        <request index="1" response="000000000" foes="111100000" cont="0"/>
        <request index="2" response="000000000" foes="111100000" cont="0"/>
        <request index="3" response="000000000" foes="110000000" cont="0"/>
        <request index="4" response="000000000" foes="110000000" cont="0"/>
        <request index="5" response="000000110" foes="110000110" cont="1"/>
        <request index="6" response="000000110" foes="000000110" cont="0"/>
        <request index="7" response="000111110" foes="000111110" cont="1"/>
        <request index="8" response="000111110" foes="000111110" cont="1"/>
    </junction>
    <junction id="1" type="priority" x="0.00" y="320.00" incLanes="1o_0 1o_1" intLanes=":1_0_0" shape="1.13,316.85 3.34,310.73 -2.22,326.16 -0.02,320.05">
        <request index="0" response="0" foes="0" cont="0"/>
    </junction>
    <junction id="1i.485" type="priority" x="456.33" y="484.28" incLanes="1i_0 1i_1" intLanes=":1i.485_0_0 :1i.485_0_1 :1i.485_0_2" shape="457.76,484.74 461.08,475.52 458.26,474.50 456.05,480.62">
        <request index="0" response="000" foes="000" cont="0"/>
        <request index="1" response="000" foes="000" cont="0"/>
        <request index="2" response="000" foes="000" cont="0"/>
    </junction>
    <junction id="2" type="priority" x="500.00" y="1000.00" incLanes="2o_0 2o_1" intLanes=":2_0_0" shape="499.95,1000.00 493.45,1000.00 509.85,1000.00 503.35,1000.00">
        <request index="0" response="0" foes="0" cont="0"/>
    </junction>
    <junction id="2i.450" type="priority" x="500.00" y="550.00" incLanes="2i_0 2i_1" intLanes=":2i.450_0_0 :2i.450_0_1 :2i.450_0_2" shape="493.45,551.50 499.95,551.50 499.95,548.50 490.15,548.50">
        <request index="0" response="000" foes="000" cont="0"/>
        <request index="1" response="000" foes="000" cont="0"/>
        <request index="2" response="000" foes="000" cont="0"/>
    </junction>
    <junction id="3" type="priority" x="500.00" y="0.00" incLanes="3o_0 3o_1" intLanes=":3_0_0" shape="503.35,-0.00 509.85,-0.00 493.45,0.00 499.95,0.00">
        <request index="0" response="0" foes="0" cont="0"/>
    </junction>
    <junction id="3i.450" type="priority" x="500.00" y="450.00" incLanes="3i_0 3i_1" intLanes=":3i.450_0_0 :3i.450_0_1 :3i.450_0_2" shape="500.05,451.50 509.85,451.50 509.85,448.50 503.35,448.50">
        <request index="0" response="000" foes="000" cont="0"/>
        <request index="1" response="000" foes="000" cont="0"/>
        <request index="2" response="000" foes="000" cont="0"/>
    </junction>

    <junction id=":0_9_0" type="internal" x="498.35" y="496.83" incLanes=":0_5_0 2i.450_1 2i.450_2" intLanes=":0_1_0 :0_1_1 :0_7_0 :0_7_1"/>
    <junction id=":0_10_0" type="internal" x="495.05" y="493.23" incLanes=":0_7_0 2i.450_1 2i.450_2 3i.450_0 3i.450_1" intLanes=":0_1_0 :0_1_1 :0_3_0 :0_3_1 :0_5_0"/>
    <junction id=":0_11_0" type="internal" x="495.05" y="496.72" incLanes=":0_7_1 2i.450_1 2i.450_2 3i.450_0 3i.450_1" intLanes=":0_1_0 :0_1_1 :0_3_0 :0_3_1 :0_5_0"/>

    <connection from="1i" to="1i.485" fromLane="0" toLane="0" via=":1i.485_0_0" dir="s" state="M"/>
    <connection from="1i" to="1i.485" fromLane="1" toLane="1" via=":1i.485_0_1" dir="s" state="M"/>
    <connection from="1i" to="1i.485" fromLane="1" toLane="2" via=":1i.485_0_2" dir="s" state="M"/>
    <connection from="1i.485" to="3o" fromLane="0" toLane="0" via=":0_6_0" tl="0" linkIndex="6" dir="r" state="o"/>
    <connection from="1i.485" to="2o" fromLane="1" toLane="0" via=":0_7_0" tl="0" linkIndex="7" dir="l" state="o"/>
    <connection from="1i.485" to="2o" fromLane="2" toLane="1" via=":0_7_1" tl="0" linkIndex="8" dir="l" state="o"/>
    <connection from="1o" to="1i" fromLane="1" toLane="1" via=":1_0_0" dir="t" state="M"/>
    <connection from="2i" to="2i.450" fromLane="0" toLane="0" via=":2i.450_0_0" dir="s" state="M"/>
    <connection from="2i" to="2i.450" fromLane="0" toLane="1" via=":2i.450_0_1" dir="s" state="M"/>
    <connection from="2i" to="2i.450" fromLane="1" toLane="2" via=":2i.450_0_2" dir="s" state="M"/>
    <connection from="2i.450" to="1o" fromLane="0" toLane="0" via=":0_0_0" tl="0" linkIndex="0" dir="r" state="o"/>
    <connection from="2i.450" to="3o" fromLane="1" toLane="0" via=":0_1_0" tl="0" linkIndex="1" dir="s" state="o"/>
    <connection from="2i.450" to="3o" fromLane="2" toLane="1" via=":0_1_1" tl="0" linkIndex="2" dir="s" state="o"/>
    <connection from="2o" to="2i" fromLane="1" toLane="1" via=":2_0_0" dir="t" state="M"/>
    <connection from="3i" to="3i.450" fromLane="0" toLane="0" via=":3i.450_0_0" dir="s" state="M"/>
    <connection from="3i" to="3i.450" fromLane="1" toLane="1" via=":3i.450_0_1" dir="s" state="M"/>
    <connection from="3i" to="3i.450" fromLane="1" toLane="2" via=":3i.450_0_2" dir="s" state="M"/>
    <connection from="3i.450" to="2o" fromLane="0" toLane="0" via=":0_3_0" tl="0" linkIndex="3" dir="s" state="o"/>
    <connection from="3i.450" to="2o" fromLane="1" toLane="1" via=":0_3_1" tl="0" linkIndex="4" dir="s" state="o"/>
    <connection from="3i.450" to="1o" fromLane="2" toLane="1" via=":0_5_0" tl="0" linkIndex="5" dir="l" state="o"/>
    <connection from="3o" to="3i" fromLane="1" toLane="1" via=":3_0_0" dir="t" state="M"/>

    <connection from=":0_0" to="1o" fromLane="0" toLane="0" dir="s" state="M"/>
    <connection from=":0_1" to="3o" fromLane="0" toLane="0" dir="s" state="M"/>
    <connection from=":0_1" to="3o" fromLane="1" toLane="1" dir="s" state="M"/>
    <connection from=":0_3" to="2o" fromLane="0" toLane="0" dir="s" state="M"/>
    <connection from=":0_3" to="2o" fromLane="1" toLane="1" dir="s" state="M"/>
    <connection from=":0_5" to="1o" fromLane="0" toLane="1" via=":0_9_0" dir="s" state="M"/>
    <connection from=":0_9" to="1o" fromLane="0" toLane="1" dir="s" state="M"/>
    <connection from=":0_6" to="3o" fromLane="0" toLane="0" dir="s" state="M"/>
    <connection from=":0_7" to="2o" fromLane="0" toLane="0" via=":0_10_0" dir="s" state="M"/>
    <connection from=":0_10" to="2o" fromLane="0" toLane="0" dir="s" state="M"/>
    <connection from=":0_7" to="2o" fromLane="1" toLane="1" via=":0_11_0" dir="s" state="M"/>
    <connection from=":0_11" to="2o" fromLane="0" toLane="1" dir="s" state="M"/>
    <connection from=":1_0" to="1i" fromLane="0" toLane="1" dir="s" state="M"/>
    <connection from=":1i.485_0" to="1i.485" fromLane="0" toLane="0" dir="s" state="M"/>
    <connection from=":1i.485_0" to="1i.485" fromLane="1" toLane="1" dir="s" state="M"/>
    <connection from=":1i.485_0" to="1i.485" fromLane="2" toLane="2" dir="s" state="M"/>
    <connection from=":2_0" to="2i" fromLane="0" toLane="1" dir="s" state="M"/>
    <connection from=":2i.450_0" to="2i.450" fromLane="0" toLane="0" dir="s" state="M"/>
    <connection from=":2i.450_0" to="2i.450" fromLane="1" toLane="1" dir="s" state="M"/>
    <connection from=":2i.450_0" to="2i.450" fromLane="2" toLane="2" dir="s" state="M"/>
    <connection from=":3_0" to="3i" fromLane="0" toLane="1" dir="s" state="M"/>
    <connection from=":3i.450_0" to="3i.450" fromLane="0" toLane="0" dir="s" state="M"/>
    <connection from=":3i.450_0" to="3i.450" fromLane="1" toLane="1" dir="s" state="M"/>
    <connection from=":3i.450_0" to="3i.450" fromLane="2" toLane="2" dir="s" state="M"/>

</net>
